abc ddddd
New line.
New line.
Test line.
Test line
Added text.
